examples/rawx/case14_ieee.rawx
{
 "network": {
  "caseid": {
   "fields": [
    "ic",
    "sbase",
    "rev",
    "xfrrat",
    "nxfrat",
    "basfrq",
    "title1"
   ],
   "data": [
    [
     0,
     100.0,
     35,
     0,
     0,
     60.0,
     "IEEE 14 BUS"
    ]
   ]
  },
  "bus": {
   "fields": [
    "ibus",
    "name",
    "baskv",
    "ide",
    "area",
    "zone",
    "owner",
    "vm",
    "va",
    "nvhi",
    "nvlo"
   ],
   "data": [
    [
     1,
     "BUS-1",
     132.0,
     3,
     1,
     1,
     1,
     1.0,
     0.0,
     1.06,
     0.94
    ],
    [
     2,
     "BUS-2",
     132.0,
     2,
     1,
     1,
     1,
     1.0,
     0.0,
     1.06,
     0.94
    ],
    [
     3,
     "BUS-3",
     132.0,
     2,
     1,
     1,
     1,
     1.0,
     0.0,
     1.06,
     0.94
    ],
    [
     4,
     "BUS-4",
     132.0,
     1,
     1,
     1,
     1,
     1.0,
     0.0,
     1.06,
     0.94
    ],
    [
     5,
     "BUS-5",
     132.0,
     1,
     1,
     1,
     1,
     1.0,
     0.0,
     1.06,
     0.94
    ],
    [
     6,
     "BUS-6",
     33.0,
     2,
     1,
     1,
     1,
     1.0,
     0.0,
     1.06,
     0.94
    ],
    [
     7,
     "BUS-7",
     33.0,
     1,
     1,
     1,
     1,
     1.0,
     0.0,
     1.06,
     0.94
    ],
    [
     8,
     "BUS-8",
     11.0,
     2,
     1,
     1,
     1,
     1.0,
     0.0,
     1.06,
     0.94
    ],
    [
     9,
     "BUS-9",
     33.0,
     1,
     1,
     1,
     1,
     1.0,
     0.0,
     1.06,
     0.94
    ],
    [
     10,
     "BUS-10",
     33.0,
     1,
     1,
     1,
     1,
     1.0,
     0.0,
     1.06,
     0.94
    ],
    [
     11,
     "BUS-11",
     33.0,
     1,
     1,
     1,
     1,
     1.0,
     0.0,
     1.06,
     0.94
    ],
    [
     12,
     "BUS-12",
     33.0,
     1,
     1,
     1,
     1,
     1.0,
     0.0,
     1.06,
     0.94
    ],
    [
     13,
     "BUS-13",
     33.0,
     1,
     1,
     1,
     1,
     1.0,
     0.0,
     1.06,
     0.94
    ],
    [
     14,
     "BUS-14",
     33.0,
     1,
     1,
     1,
     1,
     1.0,
     0.0,
     1.06,
     0.94
    ]
   ]
  },
  "load": {
   "fields": [
    "ibus",
    "loadid",
    "stat",
    "area",
    "zone",
    "pl",
    "ql"
   ],
   "data": [
    [
     2,
     "1",
     1,
     1,
     1,
     21.7,
     12.7
    ],
    [
     3,
     "1",
     1,
     1,
     1,
     94.2,
     19.0
    ],
    [
     4,
     "1",
     1,
     1,
     1,
     47.8,
     -3.9
    ],
    [
     5,
     "1",
     1,
     1,
     1,
     7.6,
     1.6
    ],
    [
     6,
     "1",
     1,
     1,
     1,
     11.2,
     7.5
    ],
    [
     9,
     "1",
     1,
     1,
     1,
     29.5,
     16.6
    ],
    [
     10,
     "1",
     1,
     1,
     1,
     9.0,
     5.8
    ],
    [
     11,
     "1",
     1,
     1,
     1,
     3.5,
     1.8
    ],
    [
     12,
     "1",
     1,
     1,
     1,
     6.1,
     1.6
    ],
    [
     13,
     "1",
     1,
     1,
     1,
     13.5,
     5.8
    ],
    [
     14,
     "1",
     1,
     1,
     1,
     14.9,
     5.0
    ]
   ]
  },
  "fixshunt": {
   "fields": [
    "ibus",
    "shntid",
    "stat",
    "gl",
    "bl"
   ],
   "data": [
    [
     9,
     "1",
     1,
     0.0,
     19.0
    ]
   ]
  },
  "generator": {
   "fields": [
    "ibus",
    "machid",
    "pg",
    "qg",
    "qt",
    "qb",
    "stat",
    "pt",
    "pb"
   ],
   "data": [
    [
     1,
     "1",
     0.0,
     0.0,
     10.0,
     0.0,
     1,
     340.0,
     0.0
    ],
    [
     2,
     "1",
     0.0,
     0.0,
     30.0,
     -30.0,
     1,
     59.0,
     0.0
    ],
    [
     3,
     "1",
     0.0,
     0.0,
     40.0,
     0.0,
     1,
     0.0,
     0.0
    ],
    [
     6,
     "1",
     0.0,
     0.0,
     24.0,
     -6.0,
     1,
     0.0,
     0.0
    ],
    [
     8,
     "1",
     0.0,
     0.0,
     24.0,
     -6.0,
     1,
     0.0,
     0.0
    ]
   ]
  },
  "acline": {
   "fields": [
    "ibus",
    "jbus",
    "ckt",
    "rpu",
    "xpu",
    "bpu",
    "stat",
    "rate1"
   ],
   "data": [
    [
     1,
     2,
     "1",
     0.01938,
     0.05917,
     0.0528,
     1,
     472.0
    ],
    [
     1,
     5,
     "1",
     0.05403,
     0.22304,
     0.0492,
     1,
     128.0
    ],
    [
     2,
     3,
     "1",
     0.04699,
     0.19797,
     0.0438,
     1,
     145.0
    ],
    [
     2,
     4,
     "1",
     0.05811,
     0.17632,
     0.034,
     1,
     158.0
    ],
    [
     2,
     5,
     "1",
     0.05695,
     0.17388,
     0.0346,
     1,
     161.0
    ],
    [
     3,
     4,
     "1",
     0.06701,
     0.17103,
     0.0128,
     1,
     160.0
    ],
    [
     4,
     5,
     "1",
     0.01335,
     0.04211,
     0.0,
     1,
     664.0
    ],
    [
     6,
     11,
     "1",
     0.09498,
     0.1989,
     0.0,
     1,
     134.0
    ],
    [
     6,
     12,
     "1",
     0.12291,
     0.25581,
     0.0,
     1,
     104.0
    ],
    [
     6,
     13,
     "1",
     0.06615,
     0.13027,
     0.0,
     1,
     201.0
    ],
    [
     7,
     8,
     "1",
     0.0,
     0.17615,
     0.0,
     1,
     167.0
    ],
    [
     7,
     9,
     "1",
     0.0,
     0.11001,
     0.0,
     1,
     267.0
    ],
    [
     9,
     10,
     "1",
     0.03181,
     0.0845,
     0.0,
     1,
     325.0
    ],
    [
     9,
     14,
     "1",
     0.12711,
     0.27038,
     0.0,
     1,
     99.0
    ],
    [
     10,
     11,
     "1",
     0.08205,
     0.19207,
     0.0,
     1,
     141.0
    ],
    [
     12,
     13,
     "1",
     0.22092,
     0.19988,
     0.0,
     1,
     99.0
    ],
    [
     13,
     14,
     "1",
     0.17093,
     0.34802,
     0.0,
     1,
     76.0
    ]
   ]
  },
  "transformer": {
   "fields": [
    "ibus",
    "jbus",
    "kbus",
    "ckt",
    "cw",
    "cz",
    "stat",
    "r1_2",
    "x1_2",
    "sbase1_2",
    "windv1",
    "windv2",
    "ang1",
    "rate1_1",
    "name"
   ],
   "data": [
    [
     4,
     7,
     0,
     "1",
     1,
     1,
     1,
     0.0,
     0.20912,
     100.0,
     0.978,
     1.0,
     0.0,
     141.0,
     "T4-7"
    ],
    [
     4,
     9,
     0,
     "1",
     1,
     1,
     1,
     0.0,
     0.55618,
     100.0,
     0.969,
     1.0,
     0.0,
     53.0,
     "T4-9"
    ],
    [
     5,
     6,
     0,
     "1",
     1,
     1,
     1,
     0.0,
     0.25202,
     100.0,
     0.932,
     1.0,
     0.0,
     117.0,
     "T5-6"
    ]
   ]
  }
 }
}